AA-match fixture
  AA-match    build_fixtures

  7  6  0  0  0  0  0  0  0  0999 V2000
    1.5200    0.0000    0.0000 C   0  0  0  0  0  0  0  0  0  0  0  0
    0.0000    0.0000    0.0000 C   0  0  0  0  0  0  0  0  0  0  0  0
   -0.6050    1.0479    0.0000 O   0  0  0  0  0  0  0  0  0  0  0  0
   -0.6500   -1.1258    0.0000 O   0  0  0  0  0  0  0  0  0  0  0  0
    1.8833    1.0277    0.0000 H   0  0  0  0  0  0  0  0  0  0  0  0
    1.8833   -0.5138    0.8900 H   0  0  0  0  0  0  0  0  0  0  0  0
    1.8833   -0.5138   -0.8900 H   0  0  0  0  0  0  0  0  0  0  0  0
  1  2  1  0
  2  3  2  0
  2  4  1  0
  5  1  1  0
  6  1  1  0
  7  1  1  0
M  CHG  1   4  -1
M  END
