AA-match fixture
  AA-match    build_fixtures

 16 16  0  0  0  0  0  0  0  0999 V2000
    1.3900    0.0000    0.0000 C   0  0  0  0  0  0  0  0  0  0  0  0
    0.6950    1.2038    0.0000 C   0  0  0  0  0  0  0  0  0  0  0  0
   -0.6950    1.2038    0.0000 C   0  0  0  0  0  0  0  0  0  0  0  0
   -1.3900    0.0000    0.0000 C   0  0  0  0  0  0  0  0  0  0  0  0
   -0.6950   -1.2038    0.0000 C   0  0  0  0  0  0  0  0  0  0  0  0
    0.6950   -1.2038    0.0000 C   0  0  0  0  0  0  0  0  0  0  0  0
    2.8700    0.0000    0.0000 C   0  0  0  0  0  0  0  0  0  0  0  0
    3.4800    1.0566    0.0000 O   0  0  0  0  0  0  0  0  0  0  0  0
    3.5450   -1.1691    0.0000 N   0  0  0  0  0  0  0  0  0  0  0  0
    1.2350    2.1391    0.0000 H   0  0  0  0  0  0  0  0  0  0  0  0
   -1.2350    2.1391    0.0000 H   0  0  0  0  0  0  0  0  0  0  0  0
   -2.4700    0.0000    0.0000 H   0  0  0  0  0  0  0  0  0  0  0  0
   -1.2350   -2.1391    0.0000 H   0  0  0  0  0  0  0  0  0  0  0  0
    1.2350   -2.1391    0.0000 H   0  0  0  0  0  0  0  0  0  0  0  0
    4.5550   -1.1691    0.0000 H   0  0  0  0  0  0  0  0  0  0  0  0
    3.0400   -2.0438    0.0000 H   0  0  0  0  0  0  0  0  0  0  0  0
  1  2  2  0
  2  3  1  0
  3  4  2  0
  4  5  1  0
  5  6  2  0
  6  1  1  0
  7  1  1  0
  7  8  2  0
  7  9  1  0
 10  2  1  0
 11  3  1  0
 12  4  1  0
 13  5  1  0
 14  6  1  0
 15  9  1  0
 16  9  1  0
M  END
